-----BEGIN PGP SIGNATURE-----

iQIzBAABCgAdFiEE2BwMs463Je9mkcOFu0YzUNbvMe8FAmgZtSsACgkQu0YzUNbv
Me8K7Q//ZXE/7AMZu5Prg3ONbAjCZkk1QoVin+yiTZNlRY1XVRKPzYe25UHKQ9Sf
R38c3alttfwEklb2V+E7jWppZo9l9AFKkx83Rh2bHOBgr+c+TxGNkhK+A9hdCKKS
U3Q11nU/CVDl8JqBqgXuWGPyGxDs9/y+gDYsOZ2hq2TDYNLazrtE4ncXOw5Jcacr
paFebgviY68pVVgcEYsyqGaslnEXYRMH2tCkvXttciQksxIrGy4JUPdCbWGciJeQ
cEfwhUlFpt7VFpyY31VflVccadKqF8YhWnfeA3hbJIFHZ/yLX+cNqd+cveK2/lTB
lMeL9L5WSU3IhLBFEKnwUN/WeKoKfa6ELKBtHY2wd07QwyrhGX+jI1Ao2CgnvsYE
ihzOiTcJqi0Cxem3DCaFIQl+l64Oh1jqbU16IzsU269LfMKWOgnrd/ILQYCThjd3
RKaQ1QkgCzL8YVlCu+L90CHBJ/0mJebEDiDj9PVxb4VGnqI3cCEpqX20aOxVTVc/
9I7467ua2fIeDclgRgRKTo9uuVHClB5chDhIjmWUfrZeNz/bdcW/arwwelkU8rvl
FAy9idPiDS0LjckgCtaDxJ5vRY534jmHw9sPiyX6fjMbEBq7edG7GZiFhGXfU33c
p3IL3rOsPy4Bvsv4GE+Gr3vvYta7SbFmQtq9cPKBfyj9vXilPxc=
=MT3D
-----END PGP SIGNATURE-----
